edisgo/opf/edisgo_scenario_data/1056/topology/storage_units.csv
,bus,control,p_nom,max_hours,voltage_level
StorageUnit_LVGrid_97101_1,BranchTee_mvgd_1056_lvgd_97101_48,PQ,0.01355,1,lv
StorageUnit_LVGrid_97101_2,BranchTee_mvgd_1056_lvgd_97101_12,PQ,0.0252,1,lv
StorageUnit_LVGrid_97101_3,BranchTee_mvgd_1056_lvgd_97101_34,PQ,0.0047599999999999,1,lv
StorageUnit_LVGrid_97101_4,BranchTee_mvgd_1056_lvgd_97101_22,PQ,0.00784,1,lv
StorageUnit_LVGrid_97101_5,BranchTee_mvgd_1056_lvgd_97101_20,PQ,0.003,1,lv
StorageUnit_LVGrid_97101_6,BranchTee_mvgd_1056_lvgd_97101_14,PQ,0.01311,1,lv
StorageUnit_LVGrid_97101_7,BranchTee_mvgd_1056_lvgd_97101_30,PQ,0.0011,1,lv
StorageUnit_LVGrid_97101_8,BranchTee_mvgd_1056_lvgd_97101_18,PQ,0.0168299999999999,1,lv
StorageUnit_LVGrid_97101_9,BranchTee_mvgd_1056_lvgd_97101_44,PQ,0.01197,1,lv
StorageUnit_LVGrid_97101_10,BranchTee_mvgd_1056_lvgd_97101_38,PQ,0.017,1,lv
StorageUnit_LVGrid_440123_1,BranchTee_mvgd_1056_lvgd_440123_6,PQ,0.01701,1,lv
StorageUnit_LVGrid_440123_2,BranchTee_mvgd_1056_lvgd_440123_4,PQ,0.01077,1,lv
StorageUnit_LVGrid_440123_3,BranchTee_mvgd_1056_lvgd_440123_2,PQ,0.0205,1,lv
StorageUnit_LVGrid_440123_4,BusBar_mvgd_1056_lvgd_440123_LV,PQ,0.04998,1,lv
StorageUnit_LVGrid_440123_5,BranchTee_mvgd_1056_lvgd_440123_2,PQ,0.00705,1,lv
StorageUnit_LVGrid_97195_1,BranchTee_mvgd_1056_lvgd_97195_10,PQ,0.0207,1,lv
StorageUnit_LVGrid_97195_2,BranchTee_mvgd_1056_lvgd_97195_24,PQ,0.01425,1,lv
StorageUnit_LVGrid_97221_1,BranchTee_mvgd_1056_lvgd_97221_12,PQ,0.0275,1,lv
StorageUnit_LVGrid_97221_2,BranchTee_mvgd_1056_lvgd_97221_32,PQ,0.02142,1,lv
StorageUnit_LVGrid_97221_3,BranchTee_mvgd_1056_lvgd_97221_14,PQ,0.02812,1,lv
StorageUnit_LVGrid_97221_4,BranchTee_mvgd_1056_lvgd_97221_22,PQ,0.0025499999999999,1,lv
StorageUnit_LVGrid_97221_5,BranchTee_mvgd_1056_lvgd_97221_2,PQ,0.00765,1,lv
StorageUnit_LVGrid_97239_1,BranchTee_mvgd_1056_lvgd_97239_50,PQ,0.0126,1,lv
StorageUnit_LVGrid_97239_2,BranchTee_mvgd_1056_lvgd_97239_10,PQ,0.00954,1,lv
StorageUnit_LVGrid_97239_3,BranchTee_mvgd_1056_lvgd_97239_34,PQ,0.015,1,lv
StorageUnit_LVGrid_97253_1,BranchTee_mvgd_1056_lvgd_97253_14,PQ,0.01116,1,lv
StorageUnit_LVGrid_97253_2,BranchTee_mvgd_1056_lvgd_97253_2,PQ,0.02588,1,lv
StorageUnit_LVGrid_97253_3,BranchTee_mvgd_1056_lvgd_97253_10,PQ,0.00897,1,lv
StorageUnit_LVGrid_97253_4,BranchTee_mvgd_1056_lvgd_97253_12,PQ,0.009,1,lv
StorageUnit_LVGrid_97253_5,BranchTee_mvgd_1056_lvgd_97253_6,PQ,0.00774,1,lv
StorageUnit_LVGrid_97254_1,BranchTee_mvgd_1056_lvgd_97254_2,PQ,0.01368,1,lv
StorageUnit_LVGrid_97254_2,BranchTee_mvgd_1056_lvgd_97254_34,PQ,0.00385,1,lv
StorageUnit_LVGrid_97254_3,BranchTee_mvgd_1056_lvgd_97254_46,PQ,0.0277,1,lv
StorageUnit_LVGrid_97254_4,BranchTee_mvgd_1056_lvgd_97254_14,PQ,0.0039,1,lv
StorageUnit_LVGrid_97254_5,BranchTee_mvgd_1056_lvgd_97254_30,PQ,0.0078,1,lv
StorageUnit_LVGrid_97255_1,BranchTee_mvgd_1056_lvgd_97255_46,PQ,0.021275,1,lv
StorageUnit_LVGrid_97255_2,BranchTee_mvgd_1056_lvgd_97255_40,PQ,0.00816,1,lv
StorageUnit_LVGrid_97255_3,BranchTee_mvgd_1056_lvgd_97255_2,PQ,0.0414,1,lv
StorageUnit_LVGrid_97255_4,BranchTee_mvgd_1056_lvgd_97255_30,PQ,0.00575,1,lv
StorageUnit_LVGrid_97255_5,BranchTee_mvgd_1056_lvgd_97255_20,PQ,0.0048,1,lv
StorageUnit_LVGrid_97255_6,BranchTee_mvgd_1056_lvgd_97255_74,PQ,0.0050999999999999,1,lv
StorageUnit_LVGrid_97255_7,BranchTee_mvgd_1056_lvgd_97255_44,PQ,0.02352,1,lv
StorageUnit_LVGrid_97255_8,BranchTee_mvgd_1056_lvgd_97255_6,PQ,0.007975,1,lv
StorageUnit_LVGrid_97255_9,BranchTee_mvgd_1056_lvgd_97255_42,PQ,0.0088,1,lv
StorageUnit_LVGrid_97255_10,BranchTee_mvgd_1056_lvgd_97255_10,PQ,0.01563,1,lv
StorageUnit_LVGrid_97255_11,BranchTee_mvgd_1056_lvgd_97255_14,PQ,0.01332,1,lv
StorageUnit_LVGrid_97255_12,BranchTee_mvgd_1056_lvgd_97255_24,PQ,0.00552,1,lv
StorageUnit_LVGrid_97290_1,BranchTee_mvgd_1056_lvgd_97290_14,PQ,0.01078,1,lv
StorageUnit_LVGrid_97290_2,BranchTee_mvgd_1056_lvgd_97290_30,PQ,0.0209,1,lv
StorageUnit_LVGrid_97290_3,BranchTee_mvgd_1056_lvgd_97290_2,PQ,0.0099,1,lv
StorageUnit_LVGrid_97290_4,BranchTee_mvgd_1056_lvgd_97290_34,PQ,0.0099,1,lv
StorageUnit_LVGrid_97290_5,BranchTee_mvgd_1056_lvgd_97290_46,PQ,0.00594,1,lv
StorageUnit_LVGrid_97290_6,BranchTee_mvgd_1056_lvgd_97290_52,PQ,0.0108,1,lv
StorageUnit_LVGrid_97290_7,BranchTee_mvgd_1056_lvgd_97290_22,PQ,0.00648,1,lv
StorageUnit_LVGrid_97290_8,BranchTee_mvgd_1056_lvgd_97290_44,PQ,0.01008,1,lv
StorageUnit_LVGrid_97290_9,BranchTee_mvgd_1056_lvgd_97290_56,PQ,0.00408,1,lv
StorageUnit_LVGrid_97333_1,BranchTee_mvgd_1056_lvgd_97333_18,PQ,0.01086,1,lv
StorageUnit_LVGrid_97333_2,BranchTee_mvgd_1056_lvgd_97333_24,PQ,0.00612,1,lv
StorageUnit_LVGrid_97333_3,BranchTee_mvgd_1056_lvgd_97333_12,PQ,0.01581,1,lv
StorageUnit_LVGrid_97333_4,BranchTee_mvgd_1056_lvgd_97333_2,PQ,0.009675,1,lv
StorageUnit_LVGrid_97333_5,BranchTee_mvgd_1056_lvgd_97333_14,PQ,0.00636,1,lv
StorageUnit_LVGrid_97333_6,BranchTee_mvgd_1056_lvgd_97333_6,PQ,0.02312,1,lv
StorageUnit_LVGrid_97334_1,BranchTee_mvgd_1056_lvgd_97334_16,PQ,0.0056,1,lv
StorageUnit_LVGrid_97334_2,BranchTee_mvgd_1056_lvgd_97334_32,PQ,0.01638,1,lv
StorageUnit_LVGrid_97334_3,BranchTee_mvgd_1056_lvgd_97334_14,PQ,0.01034,1,lv
StorageUnit_LVGrid_97340_1,BranchTee_mvgd_1056_lvgd_97340_14,PQ,0.0062699999999999,1,lv
StorageUnit_LVGrid_97340_2,BranchTee_mvgd_1056_lvgd_97340_30,PQ,0.01075,1,lv
StorageUnit_LVGrid_97340_3,BranchTee_mvgd_1056_lvgd_97340_2,PQ,0.012685,1,lv
StorageUnit_LVGrid_97340_4,BranchTee_mvgd_1056_lvgd_97340_34,PQ,0.00496,1,lv
StorageUnit_LVGrid_97340_5,BranchTee_mvgd_1056_lvgd_97340_46,PQ,0.0099,1,lv
StorageUnit_LVGrid_97341_1,BranchTee_mvgd_1056_lvgd_97341_10,PQ,0.0084,1,lv
StorageUnit_LVGrid_97341_2,BranchTee_mvgd_1056_lvgd_97341_32,PQ,0.00517,1,lv
StorageUnit_LVGrid_97341_3,BranchTee_mvgd_1056_lvgd_97341_28,PQ,0.0094,1,lv
StorageUnit_LVGrid_97341_4,BranchTee_mvgd_1056_lvgd_97341_22,PQ,0.02736,1,lv
StorageUnit_LVGrid_97341_5,BranchTee_mvgd_1056_lvgd_97341_2,PQ,0.0099,1,lv
StorageUnit_LVGrid_97341_6,BranchTee_mvgd_1056_lvgd_97341_14,PQ,0.00864,1,lv
StorageUnit_LVGrid_97341_7,BranchTee_mvgd_1056_lvgd_97341_34,PQ,0.00891,1,lv
StorageUnit_LVGrid_97341_8,BranchTee_mvgd_1056_lvgd_97341_24,PQ,0.0069299999999999,1,lv
StorageUnit_LVGrid_97341_9,BranchTee_mvgd_1056_lvgd_97341_18,PQ,0.0081,1,lv
StorageUnit_LVGrid_440493_1,BranchTee_mvgd_1056_lvgd_440493_4,PQ,0.0132,1,lv
StorageUnit_LVGrid_440493_2,BranchTee_mvgd_1056_lvgd_440493_70,PQ,0.014835,1,lv
StorageUnit_LVGrid_440493_3,BranchTee_mvgd_1056_lvgd_440493_40,PQ,0.00533,1,lv
StorageUnit_LVGrid_440493_4,BranchTee_mvgd_1056_lvgd_440493_50,PQ,0.00154,1,lv
StorageUnit_LVGrid_440493_5,BranchTee_mvgd_1056_lvgd_440493_60,PQ,0.00775,1,lv
StorageUnit_LVGrid_440493_6,BranchTee_mvgd_1056_lvgd_440493_62,PQ,0.009945,1,lv
StorageUnit_LVGrid_440493_7,BranchTee_mvgd_1056_lvgd_440493_2,PQ,0.01092,1,lv
StorageUnit_LVGrid_440493_8,BranchTee_mvgd_1056_lvgd_440493_28,PQ,0.02181,1,lv
StorageUnit_LVGrid_440493_9,BranchTee_mvgd_1056_lvgd_440493_72,PQ,0.01872,1,lv
StorageUnit_LVGrid_440493_10,BranchTee_mvgd_1056_lvgd_440493_58,PQ,0.0108,1,lv
StorageUnit_LVGrid_440493_11,BranchTee_mvgd_1056_lvgd_440493_76,PQ,0.00648,1,lv
StorageUnit_LVGrid_440493_12,BranchTee_mvgd_1056_lvgd_440493_14,PQ,0.0038,1,lv
StorageUnit_LVGrid_440493_13,BranchTee_mvgd_1056_lvgd_440493_22,PQ,0.0143,1,lv
StorageUnit_LVGrid_440493_14,BranchTee_mvgd_1056_lvgd_440493_44,PQ,0.010575,1,lv
StorageUnit_LVGrid_440493_15,BranchTee_mvgd_1056_lvgd_440493_48,PQ,0.00936,1,lv
StorageUnit_LVGrid_97717_1,BranchTee_mvgd_1056_lvgd_97717_10,PQ,0.02916,1,lv
StorageUnit_LVGrid_97717_2,BranchTee_mvgd_1056_lvgd_97717_14,PQ,0.003525,1,lv
StorageUnit_LVGrid_97717_3,BranchTee_mvgd_1056_lvgd_97717_18,PQ,0.00882,1,lv
StorageUnit_LVGrid_97717_4,BranchTee_mvgd_1056_lvgd_97717_16,PQ,0.02377,1,lv
StorageUnit_LVGrid_97717_5,BranchTee_mvgd_1056_lvgd_97717_12,PQ,0.0116999999999999,1,lv
StorageUnit_LVGrid_97717_6,BranchTee_mvgd_1056_lvgd_97717_18,PQ,0.01764,1,lv
StorageUnit_LVGrid_97718_1,BranchTee_mvgd_1056_lvgd_97718_48,PQ,0.00836,1,lv
StorageUnit_LVGrid_97718_2,BusBar_mvgd_1056_lvgd_97718_LV,PQ,0.05593,1,lv
StorageUnit_LVGrid_97718_3,BusBar_mvgd_1056_lvgd_97718_LV,PQ,0.04002,1,lv
StorageUnit_LVGrid_97718_4,BusBar_mvgd_1056_lvgd_97718_LV,PQ,0.07056,1,lv
StorageUnit_LVGrid_97718_5,BranchTee_mvgd_1056_lvgd_97718_4,PQ,0.0195,1,lv
StorageUnit_LVGrid_97718_6,BusBar_mvgd_1056_lvgd_97718_LV,PQ,0.064265,1,lv
StorageUnit_LVGrid_97718_7,BusBar_mvgd_1056_lvgd_97718_LV,PQ,0.03042,1,lv
StorageUnit_LVGrid_97718_8,BranchTee_mvgd_1056_lvgd_97718_72,PQ,0.02927,1,lv
StorageUnit_LVGrid_97719_1,BusBar_mvgd_1056_lvgd_97719_LV,PQ,0.012,1,lv
StorageUnit_LVGrid_97719_2,BusBar_mvgd_1056_lvgd_97719_LV,PQ,0.00429,1,lv
StorageUnit_LVGrid_97719_3,BranchTee_mvgd_1056_lvgd_97719_2,PQ,0.0663,1,lv
StorageUnit_LVGrid_97719_4,BusBar_mvgd_1056_lvgd_97719_LV,PQ,0.01122,1,lv
StorageUnit_LVGrid_97719_5,BusBar_mvgd_1056_lvgd_97719_LV,PQ,0.0198,1,lv
StorageUnit_LVGrid_97719_6,BusBar_mvgd_1056_lvgd_97719_LV,PQ,0.00391,1,lv
StorageUnit_LVGrid_97720_1,BranchTee_mvgd_1056_lvgd_97720_68,PQ,0.0161,1,lv
StorageUnit_LVGrid_97720_2,BranchTee_mvgd_1056_lvgd_97720_30,PQ,0.0270249999999999,1,lv
StorageUnit_LVGrid_97720_3,BranchTee_mvgd_1056_lvgd_97720_36,PQ,0.01776,1,lv
StorageUnit_LVGrid_97720_4,BranchTee_mvgd_1056_lvgd_97720_4,PQ,0.045825,1,lv
StorageUnit_LVGrid_97720_5,BranchTee_mvgd_1056_lvgd_97720_74,PQ,0.00385,1,lv
StorageUnit_LVGrid_97720_6,BranchTee_mvgd_1056_lvgd_97720_50,PQ,0.0209,1,lv
StorageUnit_LVGrid_97720_7,BranchTee_mvgd_1056_lvgd_97720_82,PQ,0.01512,1,lv
StorageUnit_LVGrid_97720_8,BranchTee_mvgd_1056_lvgd_97720_20,PQ,0.01443,1,lv
StorageUnit_LVGrid_97720_9,BranchTee_mvgd_1056_lvgd_97720_42,PQ,0.02646,1,lv
StorageUnit_LVGrid_97720_10,BranchTee_mvgd_1056_lvgd_97720_72,PQ,0.01116,1,lv
StorageUnit_LVGrid_97720_11,BranchTee_mvgd_1056_lvgd_97720_24,PQ,0.00931,1,lv
StorageUnit_LVGrid_97720_12,BranchTee_mvgd_1056_lvgd_97720_48,PQ,0.01794,1,lv
StorageUnit_LVGrid_97721_1,BranchTee_mvgd_1056_lvgd_97721_4,PQ,0.0054,1,lv
StorageUnit_LVGrid_97721_2,BranchTee_mvgd_1056_lvgd_97721_20,PQ,0.0099,1,lv
StorageUnit_LVGrid_97721_3,BranchTee_mvgd_1056_lvgd_97721_40,PQ,0.0112,1,lv
StorageUnit_LVGrid_97721_4,BranchTee_mvgd_1056_lvgd_97721_50,PQ,0.00882,1,lv
StorageUnit_LVGrid_97721_5,BranchTee_mvgd_1056_lvgd_97721_60,PQ,0.0138599999999999,1,lv
StorageUnit_LVGrid_97721_6,BranchTee_mvgd_1056_lvgd_97721_70,PQ,0.00828,1,lv
StorageUnit_LVGrid_97721_7,BranchTee_mvgd_1056_lvgd_97721_2,PQ,0.01408,1,lv
StorageUnit_LVGrid_97721_8,BranchTee_mvgd_1056_lvgd_97721_28,PQ,0.0055,1,lv
StorageUnit_LVGrid_97721_9,BranchTee_mvgd_1056_lvgd_97721_48,PQ,0.01989,1,lv
StorageUnit_LVGrid_506706_1,BranchTee_mvgd_1056_lvgd_506706_6,PQ,0.00975,1,lv
StorageUnit_LVGrid_97722_1,BranchTee_mvgd_1056_lvgd_97722_74,PQ,0.00544,1,lv
StorageUnit_LVGrid_97722_2,BranchTee_mvgd_1056_lvgd_97722_150,PQ,0.01034,1,lv
StorageUnit_LVGrid_97722_3,BranchTee_mvgd_1056_lvgd_97722_234,PQ,0.0282,1,lv
StorageUnit_LVGrid_97722_4,BranchTee_mvgd_1056_lvgd_97722_130,PQ,0.00376,1,lv
StorageUnit_LVGrid_97722_5,BusBar_mvgd_1056_lvgd_97722_LV,PQ,0.0326199999999999,1,lv
StorageUnit_LVGrid_97722_6,BranchTee_mvgd_1056_lvgd_97722_256,PQ,0.02484,1,lv
StorageUnit_LVGrid_97722_7,BranchTee_mvgd_1056_lvgd_97722_214,PQ,0.00784,1,lv
StorageUnit_LVGrid_97722_8,BranchTee_mvgd_1056_lvgd_97722_60,PQ,0.00651,1,lv
StorageUnit_LVGrid_97723_1,BranchTee_mvgd_1056_lvgd_97723_6,PQ,0.0425,1,lv
StorageUnit_LVGrid_97723_2,BranchTee_mvgd_1056_lvgd_97723_88,PQ,0.0033599999999999,1,lv
StorageUnit_LVGrid_97723_3,BranchTee_mvgd_1056_lvgd_97723_108,PQ,0.03,1,lv
StorageUnit_LVGrid_97723_4,BranchTee_mvgd_1056_lvgd_97723_74,PQ,0.007215,1,lv
StorageUnit_LVGrid_97723_5,BranchTee_mvgd_1056_lvgd_97723_66,PQ,0.0219299999999999,1,lv
StorageUnit_LVGrid_97723_6,BranchTee_mvgd_1056_lvgd_97723_76,PQ,0.012,1,lv
StorageUnit_LVGrid_97723_7,BranchTee_mvgd_1056_lvgd_97723_16,PQ,0.0194699999999999,1,lv
StorageUnit_LVGrid_97723_8,BranchTee_mvgd_1056_lvgd_97723_12,PQ,0.0072,1,lv
StorageUnit_LVGrid_97723_9,BranchTee_mvgd_1056_lvgd_97723_116,PQ,0.0101199999999999,1,lv
StorageUnit_LVGrid_97723_10,BranchTee_mvgd_1056_lvgd_97723_92,PQ,0.0075899999999999,1,lv
StorageUnit_LVGrid_97723_11,BranchTee_mvgd_1056_lvgd_97723_40,PQ,0.00594,1,lv
StorageUnit_LVGrid_97724_1,BranchTee_mvgd_1056_lvgd_97724_10,PQ,0.00645,1,lv
StorageUnit_LVGrid_97724_2,BranchTee_mvgd_1056_lvgd_97724_34,PQ,0.00567,1,lv
StorageUnit_LVGrid_97724_3,BranchTee_mvgd_1056_lvgd_97724_30,PQ,0.00792,1,lv
StorageUnit_LVGrid_97724_4,BranchTee_mvgd_1056_lvgd_97724_24,PQ,0.0153,1,lv
StorageUnit_LVGrid_97724_5,BranchTee_mvgd_1056_lvgd_97724_20,PQ,0.01943,1,lv
StorageUnit_LVGrid_97724_6,BranchTee_mvgd_1056_lvgd_97724_14,PQ,0.0108,1,lv
StorageUnit_LVGrid_97724_7,BranchTee_mvgd_1056_lvgd_97724_36,PQ,0.00473,1,lv
StorageUnit_LVGrid_97724_8,BranchTee_mvgd_1056_lvgd_97724_26,PQ,0.003375,1,lv
StorageUnit_LVGrid_97724_9,BranchTee_mvgd_1056_lvgd_97724_18,PQ,0.01025,1,lv
StorageUnit_LVGrid_97725_1,BranchTee_mvgd_1056_lvgd_97725_94,PQ,0.0084,1,lv
StorageUnit_LVGrid_97725_2,BranchTee_mvgd_1056_lvgd_97725_2,PQ,0.09984,1,lv
StorageUnit_LVGrid_97725_3,BranchTee_mvgd_1056_lvgd_97725_172,PQ,0.00833,1,lv
StorageUnit_LVGrid_97725_4,BranchTee_mvgd_1056_lvgd_97725_30,PQ,0.0064,1,lv
StorageUnit_LVGrid_97725_5,BranchTee_mvgd_1056_lvgd_97725_112,PQ,0.01088,1,lv
StorageUnit_LVGrid_97725_6,BranchTee_mvgd_1056_lvgd_97725_40,PQ,0.0032,1,lv
StorageUnit_LVGrid_97725_7,BranchTee_mvgd_1056_lvgd_97725_20,PQ,0.02175,1,lv
StorageUnit_LVGrid_97726_1,BranchTee_mvgd_1056_lvgd_97726_76,PQ,0.002,1,lv
StorageUnit_LVGrid_97726_2,BranchTee_mvgd_1056_lvgd_97726_60,PQ,0.0098,1,lv
StorageUnit_LVGrid_97726_3,BranchTee_mvgd_1056_lvgd_97726_2,PQ,0.007905,1,lv
StorageUnit_LVGrid_97726_4,BranchTee_mvgd_1056_lvgd_97726_14,PQ,0.0105,1,lv
StorageUnit_LVGrid_97726_5,BranchTee_mvgd_1056_lvgd_97726_38,PQ,0.00858,1,lv
StorageUnit_LVGrid_97726_6,BranchTee_mvgd_1056_lvgd_97726_4,PQ,0.0063,1,lv
StorageUnit_LVGrid_97726_7,BranchTee_mvgd_1056_lvgd_97726_128,PQ,0.00977,1,lv
StorageUnit_LVGrid_97726_8,BranchTee_mvgd_1056_lvgd_97726_72,PQ,0.0099499999999999,1,lv
StorageUnit_LVGrid_97726_9,BranchTee_mvgd_1056_lvgd_97726_132,PQ,0.0114749999999999,1,lv
StorageUnit_LVGrid_97726_10,BranchTee_mvgd_1056_lvgd_97726_106,PQ,0.0055,1,lv
StorageUnit_LVGrid_97726_11,BranchTee_mvgd_1056_lvgd_97726_68,PQ,0.0297,1,lv
StorageUnit_LVGrid_97726_12,BranchTee_mvgd_1056_lvgd_97726_28,PQ,0.01023,1,lv
StorageUnit_LVGrid_97726_13,BranchTee_mvgd_1056_lvgd_97726_94,PQ,0.0088,1,lv
StorageUnit_LVGrid_97727_1,BranchTee_mvgd_1056_lvgd_97727_52,PQ,0.0280799999999999,1,lv
StorageUnit_LVGrid_97727_2,BranchTee_mvgd_1056_lvgd_97727_4,PQ,0.03375,1,lv
StorageUnit_LVGrid_97727_3,BranchTee_mvgd_1056_lvgd_97727_42,PQ,0.02233,1,lv
StorageUnit_LVGrid_97727_4,BranchTee_mvgd_1056_lvgd_97727_22,PQ,0.00736,1,lv
StorageUnit_LVGrid_97727_5,BranchTee_mvgd_1056_lvgd_97727_44,PQ,0.01656,1,lv
StorageUnit_LVGrid_97727_6,BranchTee_mvgd_1056_lvgd_97727_54,PQ,0.006,1,lv
StorageUnit_LVGrid_97728_1,BranchTee_mvgd_1056_lvgd_97728_16,PQ,0.0250799999999999,1,lv
StorageUnit_LVGrid_97728_2,BranchTee_mvgd_1056_lvgd_97728_72,PQ,0.00429,1,lv
StorageUnit_LVGrid_97728_3,BranchTee_mvgd_1056_lvgd_97728_86,PQ,0.00646,1,lv
StorageUnit_LVGrid_97728_4,BranchTee_mvgd_1056_lvgd_97728_20,PQ,0.013875,1,lv
StorageUnit_LVGrid_97728_5,BranchTee_mvgd_1056_lvgd_97728_6,PQ,0.02985,1,lv
StorageUnit_LVGrid_97728_6,BranchTee_mvgd_1056_lvgd_97728_198,PQ,0.0282,1,lv
StorageUnit_LVGrid_97728_7,BranchTee_mvgd_1056_lvgd_97728_2,PQ,0.0312,1,lv
StorageUnit_LVGrid_97728_8,BranchTee_mvgd_1056_lvgd_97728_156,PQ,0.009675,1,lv
StorageUnit_LVGrid_97728_9,BranchTee_mvgd_1056_lvgd_97728_216,PQ,0.00595,1,lv
StorageUnit_LVGrid_97728_10,BranchTee_mvgd_1056_lvgd_97728_164,PQ,0.0126,1,lv
StorageUnit_LVGrid_97728_11,BranchTee_mvgd_1056_lvgd_97728_144,PQ,0.01188,1,lv
StorageUnit_LVGrid_97728_12,BranchTee_mvgd_1056_lvgd_97728_148,PQ,0.01175,1,lv
StorageUnit_LVGrid_97729_1,BranchTee_mvgd_1056_lvgd_97729_76,PQ,0.02028,1,lv
StorageUnit_LVGrid_97729_2,BranchTee_mvgd_1056_lvgd_97729_2,PQ,0.00645,1,lv
StorageUnit_LVGrid_97729_3,BranchTee_mvgd_1056_lvgd_97729_112,PQ,0.01225,1,lv
StorageUnit_LVGrid_97729_4,BranchTee_mvgd_1056_lvgd_97729_4,PQ,0.027,1,lv
StorageUnit_LVGrid_97729_5,BranchTee_mvgd_1056_lvgd_97729_38,PQ,0.0076799999999999,1,lv
StorageUnit_LVGrid_97730_1,BranchTee_mvgd_1056_lvgd_97730_12,PQ,0.01826,1,lv
StorageUnit_LVGrid_97730_2,BranchTee_mvgd_1056_lvgd_97730_10,PQ,0.00552,1,lv
StorageUnit_LVGrid_97730_3,BusBar_mvgd_1056_lvgd_97730_LV,PQ,0.03204,1,lv
StorageUnit_LVGrid_97730_4,BusBar_mvgd_1056_lvgd_97730_LV,PQ,0.04089,1,lv
StorageUnit_LVGrid_97730_5,BusBar_mvgd_1056_lvgd_97730_LV,PQ,0.03023,1,lv
StorageUnit_LVGrid_97730_6,BranchTee_mvgd_1056_lvgd_97730_6,PQ,0.0166499999999999,1,lv
StorageUnit_LVGrid_97730_7,BranchTee_mvgd_1056_lvgd_97730_8,PQ,0.01976,1,lv
StorageUnit_LVGrid_97730_8,BranchTee_mvgd_1056_lvgd_97730_4,PQ,0.01728,1,lv
StorageUnit_LVGrid_97730_9,BranchTee_mvgd_1056_lvgd_97730_12,PQ,0.0042,1,lv
StorageUnit_LVGrid_97730_10,BranchTee_mvgd_1056_lvgd_97730_8,PQ,0.02736,1,lv
StorageUnit_LVGrid_97730_11,BranchTee_mvgd_1056_lvgd_97730_10,PQ,0.00782,1,lv
StorageUnit_LVGrid_97730_12,BranchTee_mvgd_1056_lvgd_97730_2,PQ,0.0075899999999999,1,lv
StorageUnit_LVGrid_97731_1,BranchTee_mvgd_1056_lvgd_97731_104,PQ,0.00962,1,lv
StorageUnit_LVGrid_97731_2,BranchTee_mvgd_1056_lvgd_97731_66,PQ,0.029845,1,lv
StorageUnit_LVGrid_97731_3,BranchTee_mvgd_1056_lvgd_97731_80,PQ,0.01078,1,lv
StorageUnit_LVGrid_97731_4,BranchTee_mvgd_1056_lvgd_97731_2,PQ,0.00399,1,lv
StorageUnit_LVGrid_97731_5,BranchTee_mvgd_1056_lvgd_97731_54,PQ,0.01,1,lv
StorageUnit_LVGrid_97732_1,BranchTee_mvgd_1056_lvgd_97732_74,PQ,0.0032,1,lv
StorageUnit_LVGrid_97732_2,BranchTee_mvgd_1056_lvgd_97732_150,PQ,0.03,1,lv
StorageUnit_LVGrid_97732_3,BranchTee_mvgd_1056_lvgd_97732_234,PQ,0.00989,1,lv
StorageUnit_LVGrid_97732_4,BranchTee_mvgd_1056_lvgd_97732_130,PQ,0.0052,1,lv
StorageUnit_LVGrid_97732_5,BranchTee_mvgd_1056_lvgd_97732_256,PQ,0.0038399999999999,1,lv
StorageUnit_LVGrid_97733_1,BranchTee_mvgd_1056_lvgd_97733_2,PQ,0.00936,1,lv
StorageUnit_LVGrid_97733_2,BranchTee_mvgd_1056_lvgd_97733_12,PQ,0.00272,1,lv
StorageUnit_LVGrid_97733_3,BranchTee_mvgd_1056_lvgd_97733_60,PQ,0.01848,1,lv
StorageUnit_LVGrid_97733_4,BranchTee_mvgd_1056_lvgd_97733_28,PQ,0.0190399999999999,1,lv
StorageUnit_LVGrid_97733_5,BranchTee_mvgd_1056_lvgd_97733_76,PQ,0.02842,1,lv
StorageUnit_LVGrid_97733_6,BranchTee_mvgd_1056_lvgd_97733_90,PQ,0.01755,1,lv
StorageUnit_LVGrid_97733_7,BranchTee_mvgd_1056_lvgd_97733_124,PQ,0.01372,1,lv
StorageUnit_LVGrid_97733_8,BranchTee_mvgd_1056_lvgd_97733_78,PQ,0.01224,1,lv
StorageUnit_LVGrid_97734_1,BranchTee_mvgd_1056_lvgd_97734_86,PQ,0.0011,1,lv
StorageUnit_LVGrid_97734_2,BranchTee_mvgd_1056_lvgd_97734_2,PQ,0.002145,1,lv
StorageUnit_LVGrid_97734_3,BranchTee_mvgd_1056_lvgd_97734_28,PQ,0.01584,1,lv
StorageUnit_LVGrid_97734_4,BranchTee_mvgd_1056_lvgd_97734_106,PQ,0.02002,1,lv
StorageUnit_LVGrid_97734_5,BranchTee_mvgd_1056_lvgd_97734_60,PQ,0.027,1,lv
StorageUnit_LVGrid_97734_6,BranchTee_mvgd_1056_lvgd_97734_126,PQ,0.01998,1,lv
StorageUnit_LVGrid_97734_7,BranchTee_mvgd_1056_lvgd_97734_122,PQ,0.0074,1,lv
StorageUnit_LVGrid_97734_8,BranchTee_mvgd_1056_lvgd_97734_116,PQ,0.0242399999999999,1,lv
StorageUnit_LVGrid_97734_9,BranchTee_mvgd_1056_lvgd_97734_76,PQ,0.00792,1,lv
StorageUnit_LVGrid_97734_10,BranchTee_mvgd_1056_lvgd_97734_58,PQ,0.0148,1,lv
StorageUnit_LVGrid_97735_1,BranchTee_mvgd_1056_lvgd_97735_100,PQ,0.002,1,lv
StorageUnit_LVGrid_97735_2,BranchTee_mvgd_1056_lvgd_97735_140,PQ,0.005,1,lv
StorageUnit_LVGrid_97735_3,BranchTee_mvgd_1056_lvgd_97735_164,PQ,0.025,1,lv
StorageUnit_LVGrid_97735_4,BranchTee_mvgd_1056_lvgd_97735_96,PQ,0.02888,1,lv
StorageUnit_LVGrid_97735_5,BranchTee_mvgd_1056_lvgd_97735_2,PQ,0.009,1,lv
StorageUnit_LVGrid_97735_6,BranchTee_mvgd_1056_lvgd_97735_214,PQ,0.02662,1,lv
StorageUnit_LVGrid_97735_7,BranchTee_mvgd_1056_lvgd_97735_152,PQ,0.0076799999999999,1,lv
StorageUnit_LVGrid_97735_8,BranchTee_mvgd_1056_lvgd_97735_20,PQ,0.00264,1,lv
StorageUnit_LVGrid_97735_9,BranchTee_mvgd_1056_lvgd_97735_82,PQ,0.03,1,lv
StorageUnit_LVGrid_97735_10,BranchTee_mvgd_1056_lvgd_97735_38,PQ,0.00312,1,lv
StorageUnit_LVGrid_97768_1,BranchTee_mvgd_1056_lvgd_97768_14,PQ,0.0188,1,lv
StorageUnit_LVGrid_97768_2,BranchTee_mvgd_1056_lvgd_97768_30,PQ,0.015,1,lv
StorageUnit_LVGrid_97768_3,BranchTee_mvgd_1056_lvgd_97768_2,PQ,0.015345,1,lv
StorageUnit_LVGrid_97768_4,BranchTee_mvgd_1056_lvgd_97768_34,PQ,0.01584,1,lv
StorageUnit_LVGrid_97768_5,BranchTee_mvgd_1056_lvgd_97768_46,PQ,0.00731,1,lv
StorageUnit_LVGrid_97828_1,BranchTee_mvgd_1056_lvgd_97828_28,PQ,0.0048,1,lv
StorageUnit_LVGrid_97828_2,BranchTee_mvgd_1056_lvgd_97828_34,PQ,0.00462,1,lv
StorageUnit_LVGrid_97828_3,BranchTee_mvgd_1056_lvgd_97828_66,PQ,0.02623,1,lv
StorageUnit_LVGrid_97828_4,BranchTee_mvgd_1056_lvgd_97828_46,PQ,0.02092,1,lv
StorageUnit_LVGrid_97828_5,BranchTee_mvgd_1056_lvgd_97828_8,PQ,0.0030099999999999,1,lv
StorageUnit_LVGrid_97828_6,BranchTee_mvgd_1056_lvgd_97828_2,PQ,0.011025,1,lv
StorageUnit_LVGrid_97828_7,BranchTee_mvgd_1056_lvgd_97828_14,PQ,0.00495,1,lv
StorageUnit_LVGrid_97828_8,BranchTee_mvgd_1056_lvgd_97828_60,PQ,0.0081999999999999,1,lv
StorageUnit_LVGrid_97829_1,BranchTee_mvgd_1056_lvgd_97829_4,PQ,0.00128,1,lv
StorageUnit_LVGrid_97829_2,BranchTee_mvgd_1056_lvgd_97829_14,PQ,0.00792,1,lv
StorageUnit_LVGrid_97829_3,BranchTee_mvgd_1056_lvgd_97829_18,PQ,0.00437,1,lv
StorageUnit_LVGrid_97829_4,BranchTee_mvgd_1056_lvgd_97829_2,PQ,0.02323,1,lv
StorageUnit_LVGrid_97829_5,BranchTee_mvgd_1056_lvgd_97829_10,PQ,0.01,1,lv
StorageUnit_LVGrid_97829_6,BranchTee_mvgd_1056_lvgd_97829_6,PQ,0.0033599999999999,1,lv
StorageUnit_LVGrid_97829_7,BranchTee_mvgd_1056_lvgd_97829_24,PQ,0.00748,1,lv
StorageUnit_LVGrid_97829_8,BranchTee_mvgd_1056_lvgd_97829_26,PQ,0.0155,1,lv
StorageUnit_LVGrid_97829_9,BranchTee_mvgd_1056_lvgd_97829_12,PQ,0.00936,1,lv
StorageUnit_LVGrid_97851_1,BranchTee_mvgd_1056_lvgd_97851_62,PQ,0.00396,1,lv
StorageUnit_LVGrid_97851_2,BranchTee_mvgd_1056_lvgd_97851_28,PQ,0.01755,1,lv
StorageUnit_LVGrid_97851_3,BranchTee_mvgd_1056_lvgd_97851_34,PQ,0.01481,1,lv
StorageUnit_LVGrid_97851_4,BranchTee_mvgd_1056_lvgd_97851_68,PQ,0.0126,1,lv
StorageUnit_LVGrid_97851_5,BranchTee_mvgd_1056_lvgd_97851_46,PQ,0.0095,1,lv
StorageUnit_LVGrid_97876_1,BranchTee_mvgd_1056_lvgd_97876_12,PQ,0.0084,1,lv
StorageUnit_LVGrid_97876_2,BranchTee_mvgd_1056_lvgd_97876_2,PQ,0.0329,1,lv
StorageUnit_LVGrid_97876_3,BranchTee_mvgd_1056_lvgd_97876_32,PQ,0.02875,1,lv
StorageUnit_LVGrid_97876_4,BranchTee_mvgd_1056_lvgd_97876_24,PQ,0.0021,1,lv
StorageUnit_LVGrid_97905_1,BranchTee_mvgd_1056_lvgd_97905_12,PQ,0.0066,1,lv
StorageUnit_LVGrid_97905_2,BranchTee_mvgd_1056_lvgd_97905_32,PQ,0.01355,1,lv
StorageUnit_LVGrid_97905_3,BranchTee_mvgd_1056_lvgd_97905_14,PQ,0.0250799999999999,1,lv
StorageUnit_LVGrid_97905_4,BranchTee_mvgd_1056_lvgd_97905_22,PQ,0.015635,1,lv
StorageUnit_LVGrid_97905_5,BranchTee_mvgd_1056_lvgd_97905_2,PQ,0.00684,1,lv
StorageUnit_LVGrid_97906_1,BranchTee_mvgd_1056_lvgd_97906_10,PQ,0.00243,1,lv
StorageUnit_LVGrid_97906_2,BranchTee_mvgd_1056_lvgd_97906_24,PQ,0.01024,1,lv
StorageUnit_LVGrid_97906_3,BranchTee_mvgd_1056_lvgd_97906_14,PQ,0.01035,1,lv
StorageUnit_LVGrid_97906_4,BranchTee_mvgd_1056_lvgd_97906_2,PQ,0.0115,1,lv
StorageUnit_LVGrid_97906_5,BranchTee_mvgd_1056_lvgd_97906_26,PQ,0.00594,1,lv
StorageUnit_LVGrid_440366_1,BranchTee_mvgd_1056_lvgd_440366_2,PQ,0.09912,1,lv
StorageUnit_LVGrid_97952_1,BranchTee_mvgd_1056_lvgd_97952_14,PQ,0.0075899999999999,1,lv
StorageUnit_LVGrid_97976_1,BranchTee_mvgd_1056_lvgd_97976_28,PQ,0.00444,1,lv
StorageUnit_LVGrid_97976_2,BranchTee_mvgd_1056_lvgd_97976_84,PQ,0.02244,1,lv
StorageUnit_LVGrid_97976_3,BranchTee_mvgd_1056_lvgd_97976_108,PQ,0.0072,1,lv
StorageUnit_LVGrid_97976_4,BranchTee_mvgd_1056_lvgd_97976_10,PQ,0.00468,1,lv
StorageUnit_LVGrid_97976_5,BranchTee_mvgd_1056_lvgd_97976_24,PQ,0.01408,1,lv
StorageUnit_LVGrid_97976_6,BranchTee_mvgd_1056_lvgd_97976_30,PQ,0.00517,1,lv
StorageUnit_LVGrid_98276_1,BranchTee_mvgd_1056_lvgd_98276_32,PQ,0.0042,1,lv
StorageUnit_LVGrid_98276_2,BranchTee_mvgd_1056_lvgd_98276_12,PQ,0.0099,1,lv
StorageUnit_LVGrid_98276_3,BranchTee_mvgd_1056_lvgd_98276_30,PQ,0.01034,1,lv
StorageUnit_LVGrid_98276_4,BranchTee_mvgd_1056_lvgd_98276_22,PQ,0.00882,1,lv
StorageUnit_LVGrid_98277_1,BranchTee_mvgd_1056_lvgd_98277_60,PQ,0.01107,1,lv
StorageUnit_LVGrid_98277_2,BranchTee_mvgd_1056_lvgd_98277_28,PQ,0.005625,1,lv
StorageUnit_LVGrid_98277_3,BranchTee_mvgd_1056_lvgd_98277_34,PQ,0.02769,1,lv
StorageUnit_LVGrid_98277_4,BranchTee_mvgd_1056_lvgd_98277_66,PQ,0.00624,1,lv
StorageUnit_LVGrid_98278_1,BranchTee_mvgd_1056_lvgd_98278_92,PQ,0.0067599999999999,1,lv
StorageUnit_LVGrid_98278_2,BranchTee_mvgd_1056_lvgd_98278_170,PQ,0.0024,1,lv
StorageUnit_LVGrid_98278_3,BranchTee_mvgd_1056_lvgd_98278_30,PQ,0.01532,1,lv
StorageUnit_LVGrid_98278_4,BranchTee_mvgd_1056_lvgd_98278_110,PQ,0.02952,1,lv
StorageUnit_LVGrid_98278_5,BranchTee_mvgd_1056_lvgd_98278_4,PQ,0.01656,1,lv
StorageUnit_LVGrid_98278_6,BranchTee_mvgd_1056_lvgd_98278_20,PQ,0.01551,1,lv
StorageUnit_LVGrid_98278_7,BranchTee_mvgd_1056_lvgd_98278_120,PQ,0.01348,1,lv
StorageUnit_LVGrid_98278_8,BranchTee_mvgd_1056_lvgd_98278_68,PQ,0.00612,1,lv
StorageUnit_LVGrid_98278_9,BranchTee_mvgd_1056_lvgd_98278_152,PQ,0.01512,1,lv
StorageUnit_LVGrid_98278_10,BranchTee_mvgd_1056_lvgd_98278_106,PQ,0.0036,1,lv
StorageUnit_LVGrid_98278_11,BranchTee_mvgd_1056_lvgd_98278_78,PQ,0.00972,1,lv
StorageUnit_LVGrid_98278_12,BranchTee_mvgd_1056_lvgd_98278_134,PQ,0.006,1,lv
StorageUnit_LVGrid_98279_1,BranchTee_mvgd_1056_lvgd_98279_10,PQ,0.00656,1,lv
StorageUnit_LVGrid_98279_2,BranchTee_mvgd_1056_lvgd_98279_64,PQ,0.01311,1,lv
StorageUnit_LVGrid_98279_3,BranchTee_mvgd_1056_lvgd_98279_30,PQ,0.0176,1,lv
StorageUnit_LVGrid_98279_4,BranchTee_mvgd_1056_lvgd_98279_4,PQ,0.00956,1,lv
StorageUnit_LVGrid_98279_5,BranchTee_mvgd_1056_lvgd_98279_2,PQ,0.005265,1,lv
StorageUnit_LVGrid_98279_6,BranchTee_mvgd_1056_lvgd_98279_106,PQ,0.0297,1,lv
StorageUnit_LVGrid_98279_7,BranchTee_mvgd_1056_lvgd_98279_140,PQ,0.0072,1,lv
StorageUnit_LVGrid_98280_1,BranchTee_mvgd_1056_lvgd_98280_38,PQ,0.0091,1,lv
StorageUnit_LVGrid_98280_2,BranchTee_mvgd_1056_lvgd_98280_80,PQ,0.02925,1,lv
StorageUnit_LVGrid_98280_3,BranchTee_mvgd_1056_lvgd_98280_10,PQ,0.01638,1,lv
StorageUnit_LVGrid_98280_4,BranchTee_mvgd_1056_lvgd_98280_68,PQ,0.00648,1,lv
StorageUnit_LVGrid_98280_5,BranchTee_mvgd_1056_lvgd_98280_60,PQ,0.027,1,lv
StorageUnit_LVGrid_98280_6,BranchTee_mvgd_1056_lvgd_98280_70,PQ,0.0101199999999999,1,lv
StorageUnit_LVGrid_98280_7,BranchTee_mvgd_1056_lvgd_98280_16,PQ,0.00432,1,lv
StorageUnit_LVGrid_98280_8,BranchTee_mvgd_1056_lvgd_98280_12,PQ,0.01932,1,lv
StorageUnit_LVGrid_98280_9,BranchTee_mvgd_1056_lvgd_98280_106,PQ,0.009945,1,lv
StorageUnit_LVGrid_98280_10,BranchTee_mvgd_1056_lvgd_98280_84,PQ,0.00714,1,lv
StorageUnit_LVGrid_98280_11,BranchTee_mvgd_1056_lvgd_98280_72,PQ,0.02993,1,lv
StorageUnit_LVGrid_98280_12,BranchTee_mvgd_1056_lvgd_98280_76,PQ,0.0094399999999999,1,lv
StorageUnit_LVGrid_440438_1,BranchTee_mvgd_1056_lvgd_440438_102,PQ,0.01008,1,lv
StorageUnit_LVGrid_440438_2,BranchTee_mvgd_1056_lvgd_440438_62,PQ,0.01525,1,lv
StorageUnit_LVGrid_440438_3,BranchTee_mvgd_1056_lvgd_440438_86,PQ,0.00898,1,lv
StorageUnit_LVGrid_440438_4,BranchTee_mvgd_1056_lvgd_440438_40,PQ,0.00756,1,lv
StorageUnit_LVGrid_440438_5,BranchTee_mvgd_1056_lvgd_440438_8,PQ,0.01014,1,lv
StorageUnit_LVGrid_440438_6,BranchTee_mvgd_1056_lvgd_440438_100,PQ,0.0245,1,lv
StorageUnit_LVGrid_440438_7,BranchTee_mvgd_1056_lvgd_440438_60,PQ,0.0135,1,lv
StorageUnit_LVGrid_440438_8,BranchTee_mvgd_1056_lvgd_440438_68,PQ,0.01672,1,lv
StorageUnit_LVGrid_440438_9,BranchTee_mvgd_1056_lvgd_440438_14,PQ,0.0048,1,lv
StorageUnit_LVGrid_440438_10,BranchTee_mvgd_1056_lvgd_440438_50,PQ,0.00651,1,lv
StorageUnit_LVGrid_440438_11,BranchTee_mvgd_1056_lvgd_440438_38,PQ,0.01,1,lv
StorageUnit_LVGrid_440694_1,BranchTee_mvgd_1056_lvgd_440694_6,PQ,0.0297,1,lv
StorageUnit_LVGrid_98547_1,BranchTee_mvgd_1056_lvgd_98547_4,PQ,0.03666,1,lv
StorageUnit_LVGrid_98547_2,BranchTee_mvgd_1056_lvgd_98547_2,PQ,0.04248,1,lv
StorageUnit_LVGrid_98548_1,BranchTee_mvgd_1056_lvgd_98548_2,PQ,0.0411599999999999,1,lv
StorageUnit_LVGrid_98549_1,BranchTee_mvgd_1056_lvgd_98549_8,PQ,0.00465,1,lv
StorageUnit_LVGrid_98549_2,BranchTee_mvgd_1056_lvgd_98549_8,PQ,0.02992,1,lv
StorageUnit_LVGrid_98549_3,BranchTee_mvgd_1056_lvgd_98549_8,PQ,0.00779,1,lv
StorageUnit_LVGrid_98549_4,BranchTee_mvgd_1056_lvgd_98549_8,PQ,0.01288,1,lv
StorageUnit_LVGrid_98549_5,BranchTee_mvgd_1056_lvgd_98549_8,PQ,0.0098599999999999,1,lv
StorageUnit_LVGrid_98550_1,BranchTee_mvgd_1056_lvgd_98550_2,PQ,0.09984,1,lv
StorageUnit_LVGrid_98712_1,BranchTee_mvgd_1056_lvgd_98712_74,PQ,0.00276,1,lv
StorageUnit_LVGrid_98712_2,BranchTee_mvgd_1056_lvgd_98712_42,PQ,0.00512,1,lv
StorageUnit_LVGrid_98712_3,BranchTee_mvgd_1056_lvgd_98712_14,PQ,0.00594,1,lv
StorageUnit_LVGrid_98712_4,BranchTee_mvgd_1056_lvgd_98712_52,PQ,0.008405,1,lv
StorageUnit_LVGrid_98712_5,BranchTee_mvgd_1056_lvgd_98712_70,PQ,0.00658,1,lv
StorageUnit_LVGrid_98712_6,BranchTee_mvgd_1056_lvgd_98712_92,PQ,0.01504,1,lv
StorageUnit_LVGrid_98712_7,BranchTee_mvgd_1056_lvgd_98712_94,PQ,0.00748,1,lv
StorageUnit_LVGrid_98712_8,BranchTee_mvgd_1056_lvgd_98712_4,PQ,0.01656,1,lv
StorageUnit_LVGrid_98713_1,BranchTee_mvgd_1056_lvgd_98713_16,PQ,0.00085,1,lv
StorageUnit_LVGrid_98713_2,BranchTee_mvgd_1056_lvgd_98713_46,PQ,0.00833,1,lv
StorageUnit_LVGrid_440776_1,BranchTee_mvgd_1056_lvgd_440776_6,PQ,0.0072,1,lv
StorageUnit_LVGrid_440776_2,BranchTee_mvgd_1056_lvgd_440776_4,PQ,0.00756,1,lv
StorageUnit_LVGrid_439483_1,BranchTee_mvgd_1056_lvgd_439483_14,PQ,0.0055,1,lv
StorageUnit_LVGrid_439483_2,BranchTee_mvgd_1056_lvgd_439483_2,PQ,0.01125,1,lv
StorageUnit_LVGrid_439483_3,BranchTee_mvgd_1056_lvgd_439483_10,PQ,0.02982,1,lv
StorageUnit_LVGrid_439483_4,BranchTee_mvgd_1056_lvgd_439483_12,PQ,0.0085,1,lv
StorageUnit_LVGrid_439676_1,BranchTee_mvgd_1056_lvgd_439676_2,PQ,0.03008,1,lv
StorageUnit_LVGrid_439676_2,BranchTee_mvgd_1056_lvgd_439676_4,PQ,0.0121999999999999,1,lv
StorageUnit_LVGrid_439054_1,BranchTee_mvgd_1056_lvgd_439054_6,PQ,0.00966,1,lv
StorageUnit_LVGrid_504532_1,BranchTee_mvgd_1056_lvgd_504532_12,PQ,0.01283,1,lv
StorageUnit_LVGrid_504532_2,BranchTee_mvgd_1056_lvgd_504532_24,PQ,0.00252,1,lv
StorageUnit_LVGrid_504532_3,BranchTee_mvgd_1056_lvgd_504532_14,PQ,0.00172,1,lv
StorageUnit_LVGrid_504532_4,BranchTee_mvgd_1056_lvgd_504532_2,PQ,0.02926,1,lv
StorageUnit_LVGrid_504532_5,BranchTee_mvgd_1056_lvgd_504532_4,PQ,0.01572,1,lv
StorageUnit_LVGrid_504532_6,BranchTee_mvgd_1056_lvgd_504532_10,PQ,0.01907,1,lv
StorageUnit_LVGrid_98951_1,BranchTee_mvgd_1056_lvgd_98951_76,PQ,0.01092,1,lv
StorageUnit_LVGrid_98951_2,BranchTee_mvgd_1056_lvgd_98951_60,PQ,0.00799,1,lv
StorageUnit_LVGrid_98951_3,BranchTee_mvgd_1056_lvgd_98951_2,PQ,0.014805,1,lv
StorageUnit_LVGrid_98951_4,BranchTee_mvgd_1056_lvgd_98951_14,PQ,0.01,1,lv
StorageUnit_LVGrid_98951_5,BranchTee_mvgd_1056_lvgd_98951_38,PQ,0.01104,1,lv
StorageUnit_LVGrid_98952_1,BranchTee_mvgd_1056_lvgd_98952_38,PQ,0.00323,1,lv
StorageUnit_LVGrid_98952_2,BranchTee_mvgd_1056_lvgd_98952_80,PQ,0.0182,1,lv
StorageUnit_LVGrid_98952_3,BranchTee_mvgd_1056_lvgd_98952_102,PQ,0.01,1,lv
StorageUnit_LVGrid_98952_4,BranchTee_mvgd_1056_lvgd_98952_68,PQ,0.0096,1,lv
StorageUnit_LVGrid_98952_5,BranchTee_mvgd_1056_lvgd_98952_60,PQ,0.00504,1,lv
StorageUnit_LVGrid_98952_6,BranchTee_mvgd_1056_lvgd_98952_70,PQ,0.00658,1,lv
StorageUnit_LVGrid_98952_7,BranchTee_mvgd_1056_lvgd_98952_16,PQ,0.017,1,lv
StorageUnit_LVGrid_98952_8,BranchTee_mvgd_1056_lvgd_98952_98,PQ,0.0021,1,lv
StorageUnit_LVGrid_99001_1,BranchTee_mvgd_1056_lvgd_99001_16,PQ,0.00546,1,lv
StorageUnit_LVGrid_99001_2,BranchTee_mvgd_1056_lvgd_99001_50,PQ,0.006,1,lv
StorageUnit_LVGrid_99001_3,BranchTee_mvgd_1056_lvgd_99001_14,PQ,0.0095,1,lv
StorageUnit_LVGrid_99001_4,BranchTee_mvgd_1056_lvgd_99001_2,PQ,0.06512,1,lv
StorageUnit_LVGrid_99002_1,BranchTee_mvgd_1056_lvgd_99002_34,PQ,0.00085,1,lv
StorageUnit_LVGrid_99002_2,BranchTee_mvgd_1056_lvgd_99002_46,PQ,0.0108,1,lv
StorageUnit_LVGrid_99002_3,BranchTee_mvgd_1056_lvgd_99002_10,PQ,0.01104,1,lv
StorageUnit_LVGrid_99002_4,BranchTee_mvgd_1056_lvgd_99002_44,PQ,0.01944,1,lv
StorageUnit_LVGrid_99002_5,BranchTee_mvgd_1056_lvgd_99002_30,PQ,0.02989,1,lv
StorageUnit_LVGrid_99002_6,BranchTee_mvgd_1056_lvgd_99002_22,PQ,0.02982,1,lv
StorageUnit_LVGrid_99021_1,BranchTee_mvgd_1056_lvgd_99021_10,PQ,0.002,1,lv
StorageUnit_LVGrid_99021_2,BranchTee_mvgd_1056_lvgd_99021_24,PQ,0.00663,1,lv
StorageUnit_LVGrid_99021_3,BranchTee_mvgd_1056_lvgd_99021_14,PQ,0.0233999999999999,1,lv
StorageUnit_LVGrid_440092_1,BranchTee_mvgd_1056_lvgd_440092_2,PQ,0.02914,1,lv
StorageUnit_LVGrid_99143_1,BranchTee_mvgd_1056_lvgd_99143_50,PQ,0.01734,1,lv
StorageUnit_LVGrid_99143_2,BranchTee_mvgd_1056_lvgd_99143_10,PQ,0.0099499999999999,1,lv
StorageUnit_LVGrid_99143_3,BranchTee_mvgd_1056_lvgd_99143_34,PQ,0.0069299999999999,1,lv
StorageUnit_LVGrid_99143_4,BranchTee_mvgd_1056_lvgd_99143_22,PQ,0.0054,1,lv
StorageUnit_LVGrid_99143_5,BranchTee_mvgd_1056_lvgd_99143_20,PQ,0.024,1,lv
StorageUnit_LVGrid_99144_1,BranchTee_mvgd_1056_lvgd_99144_24,PQ,0.01485,1,lv
StorageUnit_LVGrid_99144_2,BranchTee_mvgd_1056_lvgd_99144_14,PQ,0.00726,1,lv
StorageUnit_LVGrid_99144_3,BranchTee_mvgd_1056_lvgd_99144_2,PQ,0.01188,1,lv
StorageUnit_LVGrid_99144_4,BranchTee_mvgd_1056_lvgd_99144_26,PQ,0.02093,1,lv
StorageUnit_LVGrid_99144_5,BranchTee_mvgd_1056_lvgd_99144_8,PQ,0.00391,1,lv
StorageUnit_LVGrid_99144_6,BranchTee_mvgd_1056_lvgd_99144_10,PQ,0.01,1,lv
StorageUnit_LVGrid_440892_1,BranchTee_mvgd_1056_lvgd_440892_12,PQ,0.00352,1,lv
StorageUnit_LVGrid_440892_2,BranchTee_mvgd_1056_lvgd_440892_26,PQ,0.00658,1,lv
StorageUnit_LVGrid_440892_3,BranchTee_mvgd_1056_lvgd_440892_14,PQ,0.00955,1,lv
StorageUnit_LVGrid_440892_4,BranchTee_mvgd_1056_lvgd_440892_20,PQ,0.01188,1,lv
StorageUnit_LVGrid_440892_5,BranchTee_mvgd_1056_lvgd_440892_4,PQ,0.00819,1,lv
StorageUnit_LVGrid_99159_1,BranchTee_mvgd_1056_lvgd_99159_16,PQ,0.0161,1,lv
StorageUnit_LVGrid_99159_2,BranchTee_mvgd_1056_lvgd_99159_32,PQ,0.01001,1,lv
StorageUnit_LVGrid_99159_3,BranchTee_mvgd_1056_lvgd_99159_14,PQ,0.00975,1,lv
StorageUnit_LVGrid_99159_4,BranchTee_mvgd_1056_lvgd_99159_22,PQ,0.0203999999999999,1,lv
StorageUnit_LVGrid_440136_1,BranchTee_mvgd_1056_lvgd_440136_6,PQ,0.0212,1,lv
StorageUnit_LVGrid_440136_2,BranchTee_mvgd_1056_lvgd_440136_6,PQ,0.0116999999999999,1,lv
StorageUnit_LVGrid_440502_1,BranchTee_mvgd_1056_lvgd_440502_4,PQ,0.00735,1,lv
StorageUnit_LVGrid_440502_2,BranchTee_mvgd_1056_lvgd_440502_2,PQ,0.01295,1,lv
StorageUnit_LVGrid_440502_3,BranchTee_mvgd_1056_lvgd_440502_2,PQ,0.006496,1,lv
StorageUnit_LVGrid_99296_1,BranchTee_mvgd_1056_lvgd_99296_10,PQ,0.00456,1,lv
StorageUnit_LVGrid_99296_2,BranchTee_mvgd_1056_lvgd_99296_24,PQ,0.02112,1,lv
StorageUnit_LVGrid_99296_3,BranchTee_mvgd_1056_lvgd_99296_14,PQ,0.00828,1,lv
StorageUnit_LVGrid_487647_1,BranchTee_mvgd_1056_lvgd_487647_4,PQ,0.0042,1,lv
StorageUnit_LVGrid_487647_2,BranchTee_mvgd_1056_lvgd_487647_4,PQ,0.0045,1,lv
StorageUnit_LVGrid_487647_3,BranchTee_mvgd_1056_lvgd_487647_4,PQ,0.01664,1,lv
StorageUnit_LVGrid_487647_4,BranchTee_mvgd_1056_lvgd_487647_4,PQ,0.00595,1,lv
StorageUnit_LVGrid_487647_5,BranchTee_mvgd_1056_lvgd_487647_4,PQ,0.007605,1,lv
StorageUnit_LVGrid_99308_1,BranchTee_mvgd_1056_lvgd_99308_10,PQ,0.00846,1,lv
StorageUnit_LVGrid_99309_1,BranchTee_mvgd_1056_lvgd_99309_14,PQ,0.00975,1,lv
StorageUnit_LVGrid_99309_2,BranchTee_mvgd_1056_lvgd_99309_46,PQ,0.01692,1,lv
StorageUnit_LVGrid_99309_3,BranchTee_mvgd_1056_lvgd_99309_2,PQ,0.0297,1,lv
StorageUnit_LVGrid_99309_4,BranchTee_mvgd_1056_lvgd_99309_34,PQ,0.02976,1,lv
StorageUnit_LVGrid_99309_5,BranchTee_mvgd_1056_lvgd_99309_12,PQ,0.01221,1,lv
StorageUnit_LVGrid_99309_6,BranchTee_mvgd_1056_lvgd_99309_56,PQ,0.00925,1,lv
StorageUnit_LVGrid_99309_7,BranchTee_mvgd_1056_lvgd_99309_22,PQ,0.00936,1,lv
StorageUnit_LVGrid_99310_1,BranchTee_mvgd_1056_lvgd_99310_12,PQ,0.0028799999999999,1,lv
StorageUnit_LVGrid_99310_2,BranchTee_mvgd_1056_lvgd_99310_32,PQ,0.0181799999999999,1,lv
StorageUnit_LVGrid_99310_3,BranchTee_mvgd_1056_lvgd_99310_14,PQ,0.009,1,lv
StorageUnit_LVGrid_99310_4,BranchTee_mvgd_1056_lvgd_99310_22,PQ,0.00981,1,lv
StorageUnit_LVGrid_99310_5,BranchTee_mvgd_1056_lvgd_99310_2,PQ,0.0151799999999999,1,lv
StorageUnit_LVGrid_102175_1,BusBar_mvgd_1056_lvgd_102175_LV,PQ,0.01443,1,lv
StorageUnit_LVGrid_102175_2,BusBar_mvgd_1056_lvgd_102175_LV,PQ,0.00248,1,lv
StorageUnit_LVGrid_102175_3,BusBar_mvgd_1056_lvgd_102175_LV,PQ,0.006525,1,lv
StorageUnit_LVGrid_102176_1,BranchTee_mvgd_1056_lvgd_102176_34,PQ,0.03,1,lv
StorageUnit_LVGrid_102176_2,BranchTee_mvgd_1056_lvgd_102176_12,PQ,0.01426,1,lv
StorageUnit_LVGrid_102176_3,BranchTee_mvgd_1056_lvgd_102176_32,PQ,0.00928,1,lv
StorageUnit_LVGrid_102176_4,BranchTee_mvgd_1056_lvgd_102176_24,PQ,0.01808,1,lv
StorageUnit_LVGrid_102176_5,BranchTee_mvgd_1056_lvgd_102176_14,PQ,0.01,1,lv
StorageUnit_LVGrid_102176_6,BranchTee_mvgd_1056_lvgd_102176_8,PQ,0.01813,1,lv
StorageUnit_LVGrid_102177_1,BranchTee_mvgd_1056_lvgd_102177_90,PQ,0.00832,1,lv
StorageUnit_LVGrid_102177_2,BranchTee_mvgd_1056_lvgd_102177_168,PQ,0.00558,1,lv
StorageUnit_LVGrid_102177_3,BranchTee_mvgd_1056_lvgd_102177_28,PQ,0.00598,1,lv
StorageUnit_LVGrid_102177_4,BranchTee_mvgd_1056_lvgd_102177_108,PQ,0.01196,1,lv
StorageUnit_LVGrid_102177_5,BranchTee_mvgd_1056_lvgd_102177_38,PQ,0.029845,1,lv
StorageUnit_LVGrid_102177_6,BranchTee_mvgd_1056_lvgd_102177_2,PQ,0.00688,1,lv
StorageUnit_LVGrid_102177_7,BranchTee_mvgd_1056_lvgd_102177_12,PQ,0.00713,1,lv
StorageUnit_LVGrid_102177_8,BranchTee_mvgd_1056_lvgd_102177_66,PQ,0.0103699999999999,1,lv
StorageUnit_LVGrid_102177_9,BranchTee_mvgd_1056_lvgd_102177_150,PQ,0.02484,1,lv
StorageUnit_LVGrid_102177_10,BranchTee_mvgd_1056_lvgd_102177_104,PQ,0.00728,1,lv
StorageUnit_LVGrid_102177_11,BranchTee_mvgd_1056_lvgd_102177_76,PQ,0.0084,1,lv
StorageUnit_LVGrid_102178_1,BranchTee_mvgd_1056_lvgd_102178_44,PQ,0.02205,1,lv
StorageUnit_LVGrid_102178_2,BranchTee_mvgd_1056_lvgd_102178_4,PQ,0.0162,1,lv
StorageUnit_LVGrid_102178_3,BranchTee_mvgd_1056_lvgd_102178_28,PQ,0.007425,1,lv
StorageUnit_LVGrid_102178_4,BranchTee_mvgd_1056_lvgd_102178_2,PQ,0.01,1,lv
StorageUnit_LVGrid_102178_5,BranchTee_mvgd_1056_lvgd_102178_72,PQ,0.0145,1,lv
StorageUnit_LVGrid_102178_6,BranchTee_mvgd_1056_lvgd_102178_42,PQ,0.00564,1,lv
StorageUnit_LVGrid_102178_7,BranchTee_mvgd_1056_lvgd_102178_58,PQ,0.0278999999999999,1,lv
StorageUnit_LVGrid_102178_8,BranchTee_mvgd_1056_lvgd_102178_40,PQ,0.01221,1,lv
StorageUnit_LVGrid_102242_1,BranchTee_mvgd_1056_lvgd_102242_50,PQ,0.01782,1,lv
StorageUnit_LVGrid_102242_2,BranchTee_mvgd_1056_lvgd_102242_10,PQ,0.0094,1,lv
StorageUnit_LVGrid_102242_3,BranchTee_mvgd_1056_lvgd_102242_34,PQ,0.0066799999999999,1,lv
StorageUnit_LVGrid_102243_1,BranchTee_mvgd_1056_lvgd_102243_10,PQ,0.006615,1,lv
StorageUnit_LVGrid_102243_2,BranchTee_mvgd_1056_lvgd_102243_24,PQ,0.0297,1,lv
StorageUnit_LVGrid_102243_3,BranchTee_mvgd_1056_lvgd_102243_14,PQ,0.02369,1,lv
StorageUnit_LVGrid_102243_4,BusBar_mvgd_1056_lvgd_102243_LV,PQ,0.0937699999999999,1,lv
StorageUnit_LVGrid_102243_5,BranchTee_mvgd_1056_lvgd_102243_2,PQ,0.02881,1,lv
StorageUnit_LVGrid_102248_1,BranchTee_mvgd_1056_lvgd_102248_104,PQ,0.0086,1,lv
StorageUnit_LVGrid_102248_2,BranchTee_mvgd_1056_lvgd_102248_106,PQ,0.00805,1,lv
StorageUnit_LVGrid_102248_3,BranchTee_mvgd_1056_lvgd_102248_98,PQ,0.01305,1,lv
StorageUnit_LVGrid_102248_4,BranchTee_mvgd_1056_lvgd_102248_84,PQ,0.00658,1,lv
StorageUnit_LVGrid_102248_5,BranchTee_mvgd_1056_lvgd_102248_30,PQ,0.0176,1,lv
StorageUnit_LVGrid_102248_6,BranchTee_mvgd_1056_lvgd_102248_62,PQ,0.016,1,lv
StorageUnit_LVGrid_102249_1,BranchTee_mvgd_1056_lvgd_102249_76,PQ,0.0111,1,lv
StorageUnit_LVGrid_102249_2,BranchTee_mvgd_1056_lvgd_102249_60,PQ,0.009165,1,lv
StorageUnit_LVGrid_102249_3,BranchTee_mvgd_1056_lvgd_102249_2,PQ,0.01,1,lv
StorageUnit_LVGrid_102249_4,BranchTee_mvgd_1056_lvgd_102249_142,PQ,0.01225,1,lv
StorageUnit_LVGrid_102249_5,BranchTee_mvgd_1056_lvgd_102249_38,PQ,0.026905,1,lv
StorageUnit_LVGrid_102249_6,BranchTee_mvgd_1056_lvgd_102249_4,PQ,0.02914,1,lv
StorageUnit_LVGrid_102249_7,BranchTee_mvgd_1056_lvgd_102249_130,PQ,0.0105,1,lv
StorageUnit_LVGrid_102249_8,BranchTee_mvgd_1056_lvgd_102249_72,PQ,0.01,1,lv
StorageUnit_LVGrid_102249_9,BranchTee_mvgd_1056_lvgd_102249_58,PQ,0.00882,1,lv
StorageUnit_LVGrid_102249_10,BranchTee_mvgd_1056_lvgd_102249_106,PQ,0.01892,1,lv
StorageUnit_LVGrid_102249_11,BranchTee_mvgd_1056_lvgd_102249_68,PQ,0.00657,1,lv
StorageUnit_LVGrid_102249_12,BranchTee_mvgd_1056_lvgd_102249_28,PQ,0.008,1,lv
StorageUnit_LVGrid_102250_1,BranchTee_mvgd_1056_lvgd_102250_28,PQ,0.02961,1,lv
StorageUnit_LVGrid_102250_2,BranchTee_mvgd_1056_lvgd_102250_44,PQ,0.00189,1,lv
StorageUnit_LVGrid_102250_3,BranchTee_mvgd_1056_lvgd_102250_2,PQ,0.0297,1,lv
StorageUnit_LVGrid_102250_4,BranchTee_mvgd_1056_lvgd_102250_74,PQ,0.02736,1,lv
StorageUnit_LVGrid_102250_5,BranchTee_mvgd_1056_lvgd_102250_12,PQ,0.0106,1,lv
StorageUnit_LVGrid_102250_6,BranchTee_mvgd_1056_lvgd_102250_4,PQ,0.02982,1,lv
StorageUnit_LVGrid_102250_7,BranchTee_mvgd_1056_lvgd_102250_26,PQ,0.021,1,lv
StorageUnit_LVGrid_102250_8,BranchTee_mvgd_1056_lvgd_102250_42,PQ,0.00936,1,lv
StorageUnit_LVGrid_102250_9,BranchTee_mvgd_1056_lvgd_102250_60,PQ,0.0072,1,lv
StorageUnit_LVGrid_102250_10,BranchTee_mvgd_1056_lvgd_102250_16,PQ,0.01215,1,lv
StorageUnit_LVGrid_102250_11,BranchTee_mvgd_1056_lvgd_102250_70,PQ,0.0075,1,lv
StorageUnit_LVGrid_102250_12,BranchTee_mvgd_1056_lvgd_102250_72,PQ,0.0264,1,lv
StorageUnit_LVGrid_102250_13,BranchTee_mvgd_1056_lvgd_102250_22,PQ,0.01176,1,lv
StorageUnit_LVGrid_506612_1,BranchTee_mvgd_1056_lvgd_506612_2,PQ,0.00665,1,lv
StorageUnit_LVGrid_506612_2,BranchTee_mvgd_1056_lvgd_506612_6,PQ,0.0299,1,lv
StorageUnit_LVGrid_506612_3,BranchTee_mvgd_1056_lvgd_506612_8,PQ,0.009,1,lv
StorageUnit_LVGrid_506626_1,BranchTee_mvgd_1056_lvgd_506626_2,PQ,0.005735,1,lv
StorageUnit_LVGrid_506626_2,BranchTee_mvgd_1056_lvgd_506626_6,PQ,0.01134,1,lv
StorageUnit_LVGrid_102319_1,BranchTee_mvgd_1056_lvgd_102319_14,PQ,0.006,1,lv
StorageUnit_LVGrid_102319_2,BranchTee_mvgd_1056_lvgd_102319_46,PQ,0.020925,1,lv
StorageUnit_LVGrid_102319_3,BranchTee_mvgd_1056_lvgd_102319_2,PQ,0.01134,1,lv
StorageUnit_LVGrid_102319_4,BranchTee_mvgd_1056_lvgd_102319_34,PQ,0.00936,1,lv
StorageUnit_LVGrid_102319_5,BranchTee_mvgd_1056_lvgd_102319_12,PQ,0.01296,1,lv
StorageUnit_LVGrid_102319_6,BranchTee_mvgd_1056_lvgd_102319_56,PQ,0.00648,1,lv
StorageUnit_LVGrid_102319_7,BranchTee_mvgd_1056_lvgd_102319_22,PQ,0.0011,1,lv
StorageUnit_LVGrid_102319_8,BranchTee_mvgd_1056_lvgd_102319_52,PQ,0.0098699999999999,1,lv
StorageUnit_LVGrid_102319_9,BranchTee_mvgd_1056_lvgd_102319_62,PQ,0.00555,1,lv
StorageUnit_LVGrid_102319_10,BranchTee_mvgd_1056_lvgd_102319_18,PQ,0.00858,1,lv
StorageUnit_LVGrid_102319_11,BranchTee_mvgd_1056_lvgd_102319_28,PQ,0.02448,1,lv
StorageUnit_LVGrid_102319_12,BranchTee_mvgd_1056_lvgd_102319_16,PQ,0.00636,1,lv
StorageUnit_LVGrid_102319_13,BranchTee_mvgd_1056_lvgd_102319_6,PQ,0.00936,1,lv
StorageUnit_LVGrid_441085_1,BranchTee_mvgd_1056_lvgd_441085_6,PQ,0.00756,1,lv
StorageUnit_LVGrid_441085_2,BranchTee_mvgd_1056_lvgd_441085_4,PQ,0.003696,1,lv
StorageUnit_LVGrid_102576_1,BranchTee_mvgd_1056_lvgd_102576_48,PQ,0.01015,1,lv
StorageUnit_LVGrid_102576_2,BranchTee_mvgd_1056_lvgd_102576_4,PQ,0.0101199999999999,1,lv
StorageUnit_LVGrid_102576_3,BranchTee_mvgd_1056_lvgd_102576_70,PQ,0.0045899999999999,1,lv
StorageUnit_LVGrid_102576_4,BranchTee_mvgd_1056_lvgd_102576_40,PQ,0.00842,1,lv
StorageUnit_LVGrid_102576_5,BranchTee_mvgd_1056_lvgd_102576_50,PQ,0.0081,1,lv
StorageUnit_LVGrid_102577_1,BranchTee_mvgd_1056_lvgd_102577_48,PQ,0.00765,1,lv
StorageUnit_LVGrid_102577_2,BranchTee_mvgd_1056_lvgd_102577_4,PQ,0.0081,1,lv
StorageUnit_LVGrid_102577_3,BranchTee_mvgd_1056_lvgd_102577_20,PQ,0.02232,1,lv
StorageUnit_LVGrid_102577_4,BranchTee_mvgd_1056_lvgd_102577_40,PQ,0.01312,1,lv
StorageUnit_LVGrid_102578_1,BranchTee_mvgd_1056_lvgd_102578_10,PQ,0.012255,1,lv
StorageUnit_LVGrid_102578_2,BranchTee_mvgd_1056_lvgd_102578_34,PQ,0.0165,1,lv
StorageUnit_LVGrid_102578_3,BranchTee_mvgd_1056_lvgd_102578_22,PQ,0.02185,1,lv
StorageUnit_LVGrid_102578_4,BranchTee_mvgd_1056_lvgd_102578_20,PQ,0.00675,1,lv
StorageUnit_LVGrid_102578_5,BranchTee_mvgd_1056_lvgd_102578_14,PQ,0.01892,1,lv
StorageUnit_LVGrid_102578_6,BranchTee_mvgd_1056_lvgd_102578_30,PQ,0.018,1,lv
StorageUnit_LVGrid_102579_1,BranchTee_mvgd_1056_lvgd_102579_48,PQ,0.01725,1,lv
StorageUnit_LVGrid_102579_2,BranchTee_mvgd_1056_lvgd_102579_4,PQ,0.01702,1,lv
StorageUnit_LVGrid_102579_3,BranchTee_mvgd_1056_lvgd_102579_70,PQ,0.01,1,lv
StorageUnit_LVGrid_102579_4,BranchTee_mvgd_1056_lvgd_102579_40,PQ,0.0069,1,lv
StorageUnit_LVGrid_102579_5,BranchTee_mvgd_1056_lvgd_102579_50,PQ,0.01032,1,lv
StorageUnit_LVGrid_102579_6,BranchTee_mvgd_1056_lvgd_102579_60,PQ,0.0074,1,lv
StorageUnit_LVGrid_102579_7,BranchTee_mvgd_1056_lvgd_102579_62,PQ,0.00504,1,lv
StorageUnit_LVGrid_102659_1,BranchTee_mvgd_1056_lvgd_102659_2,PQ,0.09984,1,lv
StorageUnit_LVGrid_102659_2,BranchTee_mvgd_1056_lvgd_102659_36,PQ,0.0050599999999999,1,lv
StorageUnit_LVGrid_102659_3,BranchTee_mvgd_1056_lvgd_102659_48,PQ,0.00564,1,lv
StorageUnit_LVGrid_441037_1,BranchTee_mvgd_1056_lvgd_441037_4,PQ,0.00594,1,lv
StorageUnit_LVGrid_441037_2,BranchTee_mvgd_1056_lvgd_441037_2,PQ,0.0297,1,lv
StorageUnit_LVGrid_441037_3,BranchTee_mvgd_1056_lvgd_441037_2,PQ,0.00924,1,lv
StorageUnit_LVGrid_441037_4,BranchTee_mvgd_1056_lvgd_441037_4,PQ,0.0252,1,lv
StorageUnit_LVGrid_440994_1,BranchTee_mvgd_1056_lvgd_440994_4,PQ,0.01323,1,lv
StorageUnit_LVGrid_440994_2,BranchTee_mvgd_1056_lvgd_440994_4,PQ,0.00616,1,lv
StorageUnit_LVGrid_440994_3,BranchTee_mvgd_1056_lvgd_440994_4,PQ,0.0218049999999999,1,lv
StorageUnit_LVGrid_102708_1,BranchTee_mvgd_1056_lvgd_102708_4,PQ,0.003,1,lv
StorageUnit_LVGrid_102708_2,BranchTee_mvgd_1056_lvgd_102708_12,PQ,0.02835,1,lv
StorageUnit_LVGrid_102708_3,BranchTee_mvgd_1056_lvgd_102708_6,PQ,0.00855,1,lv
StorageUnit_LVGrid_102708_4,BranchTee_mvgd_1056_lvgd_102708_20,PQ,0.01728,1,lv
StorageUnit_LVGrid_102723_1,BranchTee_mvgd_1056_lvgd_102723_2,PQ,0.0098,1,lv
StorageUnit_LVGrid_102723_2,BranchTee_mvgd_1056_lvgd_102723_6,PQ,0.018,1,lv
StorageUnit_LVGrid_102723_3,BranchTee_mvgd_1056_lvgd_102723_10,PQ,0.0098,1,lv
StorageUnit_LVGrid_102723_4,BranchTee_mvgd_1056_lvgd_102723_8,PQ,0.01823,1,lv
StorageUnit_LVGrid_102723_5,BranchTee_mvgd_1056_lvgd_102723_4,PQ,0.0297,1,lv
StorageUnit_LVGrid_102773_1,BranchTee_mvgd_1056_lvgd_102773_14,PQ,0.0025,1,lv
StorageUnit_LVGrid_102773_2,BranchTee_mvgd_1056_lvgd_102773_2,PQ,0.00912,1,lv
StorageUnit_LVGrid_102773_3,BranchTee_mvgd_1056_lvgd_102773_10,PQ,0.00375,1,lv
StorageUnit_LVGrid_102773_4,BranchTee_mvgd_1056_lvgd_102773_12,PQ,0.0099,1,lv
StorageUnit_LVGrid_102773_5,BranchTee_mvgd_1056_lvgd_102773_6,PQ,0.0135,1,lv
StorageUnit_LVGrid_102773_6,BusBar_mvgd_1056_lvgd_102773_LV,PQ,0.0513,1,lv
StorageUnit_LVGrid_102773_7,BranchTee_mvgd_1056_lvgd_102773_8,PQ,0.00984,1,lv
StorageUnit_LVGrid_102774_1,BranchTee_mvgd_1056_lvgd_102774_4,PQ,0.01537,1,lv
StorageUnit_LVGrid_102774_2,BranchTee_mvgd_1056_lvgd_102774_12,PQ,0.01008,1,lv
StorageUnit_LVGrid_102774_3,BranchTee_mvgd_1056_lvgd_102774_6,PQ,0.02925,1,lv
StorageUnit_LVGrid_102774_4,BranchTee_mvgd_1056_lvgd_102774_20,PQ,0.02002,1,lv
StorageUnit_LVGrid_102785_1,BranchTee_mvgd_1056_lvgd_102785_10,PQ,0.00612,1,lv
StorageUnit_LVGrid_102785_2,BranchTee_mvgd_1056_lvgd_102785_64,PQ,0.00738,1,lv
StorageUnit_LVGrid_102785_3,BranchTee_mvgd_1056_lvgd_102785_30,PQ,0.00216,1,lv
StorageUnit_LVGrid_102785_4,BranchTee_mvgd_1056_lvgd_102785_4,PQ,0.00323,1,lv
StorageUnit_LVGrid_102785_5,BranchTee_mvgd_1056_lvgd_102785_2,PQ,0.0197,1,lv
StorageUnit_LVGrid_102785_6,BranchTee_mvgd_1056_lvgd_102785_106,PQ,0.0081,1,lv
StorageUnit_LVGrid_102785_7,BranchTee_mvgd_1056_lvgd_102785_140,PQ,0.01558,1,lv
StorageUnit_LVGrid_102785_8,BranchTee_mvgd_1056_lvgd_102785_138,PQ,0.00858,1,lv
StorageUnit_LVGrid_102785_9,BranchTee_mvgd_1056_lvgd_102785_28,PQ,0.0063,1,lv
StorageUnit_LVGrid_102785_10,BranchTee_mvgd_1056_lvgd_102785_14,PQ,0.0168,1,lv
StorageUnit_LVGrid_102785_11,BranchTee_mvgd_1056_lvgd_102785_102,PQ,0.0277199999999999,1,lv
StorageUnit_LVGrid_102785_12,BranchTee_mvgd_1056_lvgd_102785_76,PQ,0.00552,1,lv
StorageUnit_LVGrid_102785_13,BranchTee_mvgd_1056_lvgd_102785_130,PQ,0.00954,1,lv
StorageUnit_LVGrid_102785_14,BranchTee_mvgd_1056_lvgd_102785_68,PQ,0.0116999999999999,1,lv
StorageUnit_LVGrid_102785_15,BranchTee_mvgd_1056_lvgd_102785_60,PQ,0.0153,1,lv
StorageUnit_LVGrid_102785_16,BranchTee_mvgd_1056_lvgd_102785_80,PQ,0.00882,1,lv
StorageUnit_LVGrid_502473_1,BranchTee_mvgd_1056_lvgd_502473_34,PQ,0.01764,1,lv
StorageUnit_LVGrid_502473_2,BranchTee_mvgd_1056_lvgd_502473_12,PQ,0.00126,1,lv
StorageUnit_LVGrid_502473_3,BranchTee_mvgd_1056_lvgd_502473_32,PQ,0.00528,1,lv
StorageUnit_LVGrid_502473_4,BranchTee_mvgd_1056_lvgd_502473_24,PQ,0.02886,1,lv
StorageUnit_LVGrid_502473_5,BranchTee_mvgd_1056_lvgd_502473_14,PQ,0.01071,1,lv
StorageUnit_LVGrid_102937_1,BranchTee_mvgd_1056_lvgd_102937_16,PQ,0.0074,1,lv
StorageUnit_LVGrid_102937_2,BranchTee_mvgd_1056_lvgd_102937_12,PQ,0.0096,1,lv
StorageUnit_LVGrid_103068_1,BranchTee_mvgd_1056_lvgd_103068_48,PQ,0.0081,1,lv
StorageUnit_LVGrid_103068_2,BranchTee_mvgd_1056_lvgd_103068_4,PQ,0.01449,1,lv
StorageUnit_LVGrid_103068_3,BranchTee_mvgd_1056_lvgd_103068_72,PQ,0.00629,1,lv
StorageUnit_LVGrid_103068_4,BranchTee_mvgd_1056_lvgd_103068_40,PQ,0.01056,1,lv
StorageUnit_LVGrid_103068_5,BranchTee_mvgd_1056_lvgd_103068_50,PQ,0.01287,1,lv
StorageUnit_LVGrid_103068_6,BranchTee_mvgd_1056_lvgd_103068_60,PQ,0.0045,1,lv
StorageUnit_LVGrid_103068_7,BranchTee_mvgd_1056_lvgd_103068_62,PQ,0.015045,1,lv
StorageUnit_LVGrid_103068_8,BranchTee_mvgd_1056_lvgd_103068_2,PQ,0.012005,1,lv
StorageUnit_LVGrid_103068_9,BranchTee_mvgd_1056_lvgd_103068_28,PQ,0.0299,1,lv
StorageUnit_LVGrid_506736_1,BranchTee_mvgd_1056_lvgd_506736_4,PQ,0.01156,1,lv
StorageUnit_LVGrid_506736_2,BranchTee_mvgd_1056_lvgd_506736_12,PQ,0.0025299999999999,1,lv
StorageUnit_LVGrid_506736_3,BranchTee_mvgd_1056_lvgd_506736_6,PQ,0.00299,1,lv
StorageUnit_LVGrid_506736_4,BranchTee_mvgd_1056_lvgd_506736_20,PQ,0.004275,1,lv
StorageUnit_LVGrid_506736_5,BranchTee_mvgd_1056_lvgd_506736_18,PQ,0.00861,1,lv
StorageUnit_LVGrid_103093_1,BranchTee_mvgd_1056_lvgd_103093_28,PQ,0.0072,1,lv
StorageUnit_LVGrid_103093_2,BranchTee_mvgd_1056_lvgd_103093_4,PQ,0.01363,1,lv
StorageUnit_LVGrid_103093_3,BranchTee_mvgd_1056_lvgd_103093_40,PQ,0.00682,1,lv
StorageUnit_LVGrid_103093_4,BranchTee_mvgd_1056_lvgd_103093_16,PQ,0.00208,1,lv
StorageUnit_LVGrid_103093_5,BranchTee_mvgd_1056_lvgd_103093_42,PQ,0.00864,1,lv
StorageUnit_LVGrid_103093_6,BranchTee_mvgd_1056_lvgd_103093_68,PQ,0.01656,1,lv
StorageUnit_LVGrid_103093_7,BranchTee_mvgd_1056_lvgd_103093_10,PQ,0.02744,1,lv
StorageUnit_LVGrid_103093_8,BranchTee_mvgd_1056_lvgd_103093_44,PQ,0.00833,1,lv
StorageUnit_LVGrid_103093_9,BranchTee_mvgd_1056_lvgd_103093_62,PQ,0.00216,1,lv
StorageUnit_LVGrid_103093_10,BranchTee_mvgd_1056_lvgd_103093_2,PQ,0.009945,1,lv
StorageUnit_LVGrid_109033_1,BranchTee_mvgd_1056_lvgd_109033_14,PQ,0.00341,1,lv
StorageUnit_LVGrid_109033_2,BranchTee_mvgd_1056_lvgd_109033_2,PQ,0.006,1,lv
StorageUnit_LVGrid_109033_3,BranchTee_mvgd_1056_lvgd_109033_10,PQ,0.00858,1,lv
StorageUnit_LVGrid_109033_4,BranchTee_mvgd_1056_lvgd_109033_12,PQ,0.0075,1,lv
StorageUnit_LVGrid_109033_5,BranchTee_mvgd_1056_lvgd_109033_6,PQ,0.00989,1,lv
StorageUnit_LVGrid_109034_1,BranchTee_mvgd_1056_lvgd_109034_38,PQ,0.00552,1,lv
StorageUnit_LVGrid_109034_2,BranchTee_mvgd_1056_lvgd_109034_80,PQ,0.0078049999999999,1,lv
StorageUnit_LVGrid_109034_3,BranchTee_mvgd_1056_lvgd_109034_10,PQ,0.00368,1,lv
StorageUnit_LVGrid_109035_1,BranchTee_mvgd_1056_lvgd_109035_78,PQ,0.0054,1,lv
StorageUnit_LVGrid_109035_2,BranchTee_mvgd_1056_lvgd_109035_28,PQ,0.01188,1,lv
StorageUnit_LVGrid_109035_3,BranchTee_mvgd_1056_lvgd_109035_188,PQ,0.0114,1,lv
StorageUnit_LVGrid_109035_4,BranchTee_mvgd_1056_lvgd_109035_2,PQ,0.01443,1,lv
StorageUnit_LVGrid_109035_5,BranchTee_mvgd_1056_lvgd_109035_152,PQ,0.0140399999999999,1,lv
StorageUnit_LVGrid_109035_6,Bus_mvgd_1056_lvgd_109035_gen_753018,PQ,0.19604,1,lv
StorageUnit_LVGrid_109035_7,BranchTee_mvgd_1056_lvgd_109035_4,PQ,0.00954,1,lv
StorageUnit_LVGrid_109036_1,BranchTee_mvgd_1056_lvgd_109036_38,PQ,0.0016,1,lv
StorageUnit_LVGrid_109036_2,BranchTee_mvgd_1056_lvgd_109036_80,PQ,0.01188,1,lv
StorageUnit_LVGrid_109036_3,BranchTee_mvgd_1056_lvgd_109036_10,PQ,0.00484,1,lv
StorageUnit_LVGrid_109036_4,BranchTee_mvgd_1056_lvgd_109036_68,PQ,0.01316,1,lv
StorageUnit_LVGrid_109036_5,BranchTee_mvgd_1056_lvgd_109036_60,PQ,0.0049,1,lv
StorageUnit_LVGrid_109037_1,BranchTee_mvgd_1056_lvgd_109037_72,PQ,0.00645,1,lv
StorageUnit_LVGrid_109037_2,BranchTee_mvgd_1056_lvgd_109037_40,PQ,0.00605,1,lv
StorageUnit_LVGrid_109037_3,BranchTee_mvgd_1056_lvgd_109037_14,PQ,0.01485,1,lv
StorageUnit_LVGrid_109037_4,BranchTee_mvgd_1056_lvgd_109037_50,PQ,0.00894,1,lv
StorageUnit_LVGrid_109037_5,BranchTee_mvgd_1056_lvgd_109037_68,PQ,0.00683,1,lv
StorageUnit_LVGrid_109037_6,BranchTee_mvgd_1056_lvgd_109037_90,PQ,0.00575,1,lv
StorageUnit_LVGrid_109037_7,BranchTee_mvgd_1056_lvgd_109037_92,PQ,0.00735,1,lv
StorageUnit_LVGrid_109130_1,BranchTee_mvgd_1056_lvgd_109130_12,PQ,0.01147,1,lv
StorageUnit_LVGrid_109130_2,BranchTee_mvgd_1056_lvgd_109130_4,PQ,0.02926,1,lv
StorageUnit_LVGrid_109191_1,BranchTee_mvgd_1056_lvgd_109191_16,PQ,0.02121,1,lv
StorageUnit_LVGrid_109191_2,BranchTee_mvgd_1056_lvgd_109191_32,PQ,0.01218,1,lv
StorageUnit_LVGrid_109191_3,BranchTee_mvgd_1056_lvgd_109191_14,PQ,0.0216,1,lv
StorageUnit_LVGrid_109191_4,BranchTee_mvgd_1056_lvgd_109191_22,PQ,0.00684,1,lv
StorageUnit_LVGrid_109191_5,BranchTee_mvgd_1056_lvgd_109191_8,PQ,0.015,1,lv
StorageUnit_LVGrid_109191_6,BranchTee_mvgd_1056_lvgd_109191_18,PQ,0.00432,1,lv
StorageUnit_LVGrid_109191_7,BranchTee_mvgd_1056_lvgd_109191_30,PQ,0.01105,1,lv
StorageUnit_LVGrid_109191_8,BranchTee_mvgd_1056_lvgd_109191_6,PQ,0.007,1,lv
StorageUnit_LVGrid_109684_1,BranchTee_mvgd_1056_lvgd_109684_14,PQ,0.0038399999999999,1,lv
StorageUnit_LVGrid_109684_2,BranchTee_mvgd_1056_lvgd_109684_30,PQ,0.0049,1,lv
StorageUnit_LVGrid_109684_3,BranchTee_mvgd_1056_lvgd_109684_2,PQ,0.00644,1,lv
StorageUnit_LVGrid_109684_4,BranchTee_mvgd_1056_lvgd_109684_34,PQ,0.0057199999999999,1,lv
StorageUnit_LVGrid_109684_5,BusBar_mvgd_1056_lvgd_109684_LV,PQ,0.03774,1,lv
StorageUnit_LVGrid_109684_6,BranchTee_mvgd_1056_lvgd_109684_46,PQ,0.00833,1,lv
StorageUnit_LVGrid_109684_7,BranchTee_mvgd_1056_lvgd_109684_52,PQ,0.00748,1,lv
StorageUnit_LVGrid_109684_8,BranchTee_mvgd_1056_lvgd_109684_22,PQ,0.00858,1,lv
StorageUnit_LVGrid_109684_9,BranchTee_mvgd_1056_lvgd_109684_44,PQ,0.0168299999999999,1,lv
StorageUnit_LVGrid_109684_10,BranchTee_mvgd_1056_lvgd_109684_56,PQ,0.0063,1,lv
StorageUnit_LVGrid_440542_1,BranchTee_mvgd_1056_lvgd_440542_4,PQ,0.00648,1,lv
StorageUnit_LVGrid_440542_2,BranchTee_mvgd_1056_lvgd_440542_12,PQ,0.0096,1,lv
StorageUnit_LVGrid_440542_3,BranchTee_mvgd_1056_lvgd_440542_6,PQ,0.0067199999999999,1,lv
StorageUnit_LVGrid_440542_4,BranchTee_mvgd_1056_lvgd_440542_20,PQ,0.0140399999999999,1,lv
